*SPEF "ieee 1481-1999"
*DESIGN "alu4bit"
*DATE "11:11:11 Fri 11 11, 1111"
*VENDOR "OpenRCX"
*PROGRAM "Parallel Extraction"
*VERSION "1.0"
*DESIGN_FLOW "NAME_SCOPE LOCAL" "PIN_CAP NONE"
*DIVIDER /
*DELIMITER :
*BUS_DELIMITER []
*T_UNIT 1 NS
*C_UNIT 1 PF
*R_UNIT 1 OHM
*L_UNIT 1 HENRY

*NAME_MAP
*1 A[0]
*2 A[1]
*3 A[2]
*4 A[3]
*5 B[0]
*6 B[1]
*7 B[2]
*8 B[3]
*11 clk
*12 result[0]
*13 result[1]
*14 result[2]
*15 result[3]
*16 rst
*17 sel[0]
*18 sel[1]
*19 sel[2]
*20 _000_
*21 _001_
*22 _002_
*23 _003_
*24 _004_
*25 _005_
*26 _006_
*27 _007_
*28 _008_
*29 _009_
*30 _010_
*31 _011_
*32 _012_
*33 _013_
*34 _014_
*35 _015_
*36 _016_
*37 _017_
*38 _018_
*39 _019_
*40 _020_
*41 _021_
*42 _022_
*43 _023_
*44 _024_
*45 _025_
*46 _026_
*47 _027_
*48 _028_
*49 _029_
*50 _030_
*51 _031_
*52 _032_
*53 _033_
*54 _034_
*55 _035_
*56 _036_
*57 _037_
*58 _038_
*59 _039_
*60 _040_
*61 _041_
*62 _042_
*63 _043_
*64 _044_
*65 _045_
*66 _046_
*67 _047_
*68 _048_
*69 _049_
*70 _050_
*71 _051_
*72 _052_
*73 _053_
*74 _054_
*75 _055_
*76 _056_
*77 _057_
*78 _058_
*79 _059_
*80 _060_
*81 _061_
*82 clknet_0_clk
*83 clknet_1_0__leaf_clk
*84 clknet_1_1__leaf_clk
*85 net1
*86 net10
*87 net11
*88 net12
*89 net13
*90 net14
*91 net15
*92 net16
*93 net2
*94 net3
*95 net4
*96 net5
*97 net6
*98 net7
*99 net8
*100 net9
*101 FILLER_0_0_19
*102 FILLER_0_0_27
*103 FILLER_0_0_36
*104 FILLER_0_0_44
*105 FILLER_0_0_48
*106 FILLER_0_0_57
*107 FILLER_0_0_69
*108 FILLER_0_0_76
*109 FILLER_0_0_85
*110 FILLER_0_10_19
*111 FILLER_0_10_27
*112 FILLER_0_10_33
*113 FILLER_0_10_41
*114 FILLER_0_10_51
*115 FILLER_0_10_63
*116 FILLER_0_10_75
*117 FILLER_0_10_79
*118 FILLER_0_10_85
*119 FILLER_0_11_19
*120 FILLER_0_11_31
*121 FILLER_0_11_43
*122 FILLER_0_11_55
*123 FILLER_0_11_57
*124 FILLER_0_11_69
*125 FILLER_0_11_7
*126 FILLER_0_12_15
*127 FILLER_0_12_23
*128 FILLER_0_12_27
*129 FILLER_0_12_29
*130 FILLER_0_12_3
*131 FILLER_0_12_37
*132 FILLER_0_12_55
*133 FILLER_0_12_67
*134 FILLER_0_12_73
*135 FILLER_0_12_81
*136 FILLER_0_12_85
*137 FILLER_0_13_15
*138 FILLER_0_13_3
*139 FILLER_0_13_30
*140 FILLER_0_13_36
*141 FILLER_0_13_42
*142 FILLER_0_13_48
*143 FILLER_0_13_52
*144 FILLER_0_13_62
*145 FILLER_0_13_70
*146 FILLER_0_13_84
*147 FILLER_0_14_10
*148 FILLER_0_14_22
*149 FILLER_0_14_29
*150 FILLER_0_14_35
*151 FILLER_0_14_47
*152 FILLER_0_14_55
*153 FILLER_0_14_57
*154 FILLER_0_14_63
*155 FILLER_0_14_71
*156 FILLER_0_14_85
*157 FILLER_0_1_15
*158 FILLER_0_1_40
*159 FILLER_0_1_55
*160 FILLER_0_1_7
*161 FILLER_0_2_13
*162 FILLER_0_2_19
*163 FILLER_0_2_25
*164 FILLER_0_2_46
*165 FILLER_0_2_55
*166 FILLER_0_2_67
*167 FILLER_0_2_79
*168 FILLER_0_2_83
*169 FILLER_0_2_85
*170 FILLER_0_2_9
*171 FILLER_0_3_15
*172 FILLER_0_3_27
*173 FILLER_0_3_3
*174 FILLER_0_3_39
*175 FILLER_0_3_47
*176 FILLER_0_3_64
*177 FILLER_0_3_76
*178 FILLER_0_3_84
*179 FILLER_0_4_15
*180 FILLER_0_4_27
*181 FILLER_0_4_3
*182 FILLER_0_4_40
*183 FILLER_0_4_48
*184 FILLER_0_4_56
*185 FILLER_0_4_68
*186 FILLER_0_4_80
*187 FILLER_0_4_85
*188 FILLER_0_5_15
*189 FILLER_0_5_29
*190 FILLER_0_5_3
*191 FILLER_0_5_41
*192 FILLER_0_5_57
*193 FILLER_0_5_69
*194 FILLER_0_5_7
*195 FILLER_0_5_83
*196 FILLER_0_6_21
*197 FILLER_0_6_27
*198 FILLER_0_6_40
*199 FILLER_0_6_74
*200 FILLER_0_6_80
*201 FILLER_0_6_85
*202 FILLER_0_6_9
*203 FILLER_0_7_21
*204 FILLER_0_7_27
*205 FILLER_0_7_3
*206 FILLER_0_7_36
*207 FILLER_0_7_51
*208 FILLER_0_7_55
*209 FILLER_0_7_57
*210 FILLER_0_7_69
*211 FILLER_0_7_82
*212 FILLER_0_8_15
*213 FILLER_0_8_19
*214 FILLER_0_8_24
*215 FILLER_0_8_29
*216 FILLER_0_8_3
*217 FILLER_0_8_39
*218 FILLER_0_8_47
*219 FILLER_0_8_52
*220 FILLER_0_8_60
*221 FILLER_0_8_83
*222 FILLER_0_8_85
*223 FILLER_0_9_3
*224 FILLER_0_9_36
*225 FILLER_0_9_44
*226 FILLER_0_9_53
*227 FILLER_0_9_64
*228 FILLER_0_9_70
*229 FILLER_0_9_76
*230 FILLER_0_9_84
*231 PHY_0
*232 PHY_1
*233 PHY_10
*234 PHY_11
*235 PHY_12
*236 PHY_13
*237 PHY_14
*238 PHY_15
*239 PHY_16
*240 PHY_17
*241 PHY_18
*242 PHY_19
*243 PHY_2
*244 PHY_20
*245 PHY_21
*246 PHY_22
*247 PHY_23
*248 PHY_24
*249 PHY_25
*250 PHY_26
*251 PHY_27
*252 PHY_28
*253 PHY_29
*254 PHY_3
*255 PHY_4
*256 PHY_5
*257 PHY_6
*258 PHY_7
*259 PHY_8
*260 PHY_9
*261 TAP_30
*262 TAP_31
*263 TAP_32
*264 TAP_33
*265 TAP_34
*266 TAP_35
*267 TAP_36
*268 TAP_37
*269 TAP_38
*270 TAP_39
*271 TAP_40
*272 TAP_41
*273 TAP_42
*274 TAP_43
*275 TAP_44
*276 TAP_45
*277 TAP_46
*278 TAP_47
*279 TAP_48
*280 TAP_49
*281 TAP_50
*282 TAP_51
*283 TAP_52
*284 TAP_53
*285 TAP_54
*286 _062_
*287 _063_
*288 _064_
*289 _065_
*290 _066_
*291 _067_
*292 _068_
*293 _069_
*294 _070_
*295 _071_
*296 _072_
*297 _073_
*298 _074_
*299 _075_
*300 _076_
*301 _077_
*302 _078_
*303 _079_
*304 _080_
*305 _081_
*306 _082_
*307 _083_
*308 _084_
*309 _085_
*310 _086_
*311 _087_
*312 _088_
*313 _089_
*314 _090_
*315 _091_
*316 _092_
*317 _093_
*318 _094_
*319 _095_
*320 _096_
*321 _097_
*322 _098_
*323 _099_
*324 _100_
*325 _101_
*326 _102_
*327 _103_
*328 _104_
*329 _105_
*330 _106_
*331 _107_
*332 _108_
*333 _109_
*334 _110_
*335 _111_
*336 _112_
*337 _113_
*338 _114_
*339 _115_
*340 _116_
*341 _117_
*342 _118_
*343 _119_
*344 _120_
*345 _121_
*346 _122_
*347 _123_
*348 _124_
*349 _125_
*350 _126_
*351 _127_
*352 clkbuf_0_clk
*353 clkbuf_1_0__f_clk
*354 clkbuf_1_1__f_clk
*355 input1
*356 input10
*357 input11
*358 input12
*359 input2
*360 input3
*361 input4
*362 input5
*363 input6
*364 input7
*365 input8
*366 input9
*367 output13
*368 output14
*369 output15
*370 output16

*PORTS
A[0] I
A[1] I
A[2] I
A[3] I
B[0] I
B[1] I
B[2] I
B[3] I
clk I
result[0] O
result[1] O
result[2] O
result[3] O
rst I
sel[0] I
sel[1] I
sel[2] I

*D_NET *1 0.000956034
*CONN
*P A[0] I
*I *355:A I *D sky130_fd_sc_hd__clkbuf_2
*CAP
1 A[0] 0.000478017
2 *355:A 0
3 *1:13 0.000478017
*RES
1 A[0] *1:13 28.6715 
2 *1:13 *355:A 23 
*END

*D_NET *2 0.00165776
*CONN
*P A[1] I
*I *359:A I *D sky130_fd_sc_hd__buf_2
*CAP
1 A[1] 0.000828882
2 *359:A 0
3 *2:9 0.000828882
*RES
1 A[1] *2:9 31.9443 
2 *2:9 *359:A 23 
*END

*D_NET *3 0.000958254
*CONN
*P A[2] I
*I *360:A I *D sky130_fd_sc_hd__buf_2
*CAP
1 A[2] 0.000449984
2 *360:A 0
3 *3:13 0.000449984
4 *3:13 *18:13 5.82853e-05
*RES
1 A[2] *3:13 30.7546 
2 *3:13 *360:A 23 
*END

*D_NET *4 0.00108431
*CONN
*P A[3] I
*I *361:A I *D sky130_fd_sc_hd__clkbuf_2
*CAP
1 A[3] 0.000490753
2 *361:A 0.000490753
3 *361:A *96:6 0.000102803
*RES
1 A[3] *361:A 48.8543 
*END

*D_NET *5 0.00103932
*CONN
*P B[0] I
*I *362:A I *D sky130_fd_sc_hd__clkbuf_2
*CAP
1 B[0] 0.000519662
2 *362:A 0.000519662
*RES
1 B[0] *362:A 48.8543 
*END

*D_NET *6 0.00187898
*CONN
*P B[1] I
*I *363:A I *D sky130_fd_sc_hd__clkbuf_2
*CAP
1 B[1] 0.000936554
2 *363:A 0
3 *6:9 0.000936554
4 *6:9 *13:10 5.87218e-06
*RES
1 B[1] *6:9 34.6371 
2 *6:9 *363:A 23 
*END

*D_NET *7 0.00127012
*CONN
*P B[2] I
*I *364:A I *D sky130_fd_sc_hd__clkbuf_2
*CAP
1 B[2] 0.000526538
2 *364:A 0
3 *7:13 0.000526538
4 *7:13 result[3] 0.000148569
5 *7:13 *15:8 6.84697e-05
*RES
1 B[2] *7:13 31.4886 
2 *7:13 *364:A 23 
*END

*D_NET *8 0.00100427
*CONN
*P B[3] I
*I *365:A I *D sky130_fd_sc_hd__buf_1
*CAP
1 B[3] 0.000502134
2 *365:A 0.000502134
*RES
1 B[3] *365:A 48.2743 
*END

*D_NET *11 0.00651704
*CONN
*P clk I
*I *352:A I *D sky130_fd_sc_hd__clkbuf_16
*CAP
1 clk 0.00252807
2 *352:A 0
3 *11:17 0.00252807
4 *11:17 *24:90 0.000301131
5 *11:17 *24:96 0.000496536
6 *11:17 *26:8 0.00024189
7 *11:17 *32:40 0.000134204
8 *11:17 *52:12 0
9 *11:17 *83:12 0
10 *11:17 *85:65 9.89377e-05
11 *11:17 *93:78 0.000188203
12 *11:17 *97:21 0
13 *11:17 *100:25 0
*RES
1 clk *11:17 44.7941 
2 *11:17 *352:A 38 
*END

*D_NET *12 0.000733228
*CONN
*P result[0] O
*I *367:X O *D sky130_fd_sc_hd__buf_2
*CAP
1 result[0] 0.000360768
2 *367:X 0.000360768
3 result[0] *93:10 1.16924e-05
*RES
1 *367:X result[0] 47.2507 
*END

*D_NET *13 0.00102522
*CONN
*P result[1] O
*I *368:X O *D sky130_fd_sc_hd__clkbuf_4
*CAP
1 result[1] 9.54938e-05
2 *368:X 0.000414181
3 *13:10 0.000509675
4 *13:10 *90:10 0
5 *6:9 *13:10 5.87218e-06
*RES
1 *368:X *13:10 44.6182 
2 *13:10 result[1] 8.32853 
*END

*D_NET *14 0.000614988
*CONN
*P result[2] O
*I *369:X O *D sky130_fd_sc_hd__clkbuf_4
*CAP
1 result[2] 0.000304699
2 *369:X 0.000304699
3 result[2] *86:20 5.58873e-06
*RES
1 *369:X result[2] 47.2507 
*END

*D_NET *15 0.00160216
*CONN
*P result[3] O
*I *370:X O *D sky130_fd_sc_hd__clkbuf_4
*CAP
1 result[3] 0.00035924
2 *370:X 0.00032174
3 *15:8 0.00068098
4 *15:8 *370:A 2.31581e-05
5 *7:13 result[3] 0.000148569
6 *7:13 *15:8 6.84697e-05
*RES
1 *370:X *15:8 42.4329 
2 *15:8 result[3] 8.7 
*END

*D_NET *16 0.00085858
*CONN
*P rst I
*I *366:A I *D sky130_fd_sc_hd__buf_1
*CAP
1 rst 0.00042929
2 *366:A 0.00042929
*RES
1 rst *366:A 47.4664 
*END

*D_NET *17 0.000571943
*CONN
*P sel[0] I
*I *356:A I *D sky130_fd_sc_hd__buf_2
*CAP
1 sel[0] 0.000281039
2 *356:A 0.000281039
3 *356:A *86:8 9.86551e-06
4 *356:A *87:14 0
*RES
1 sel[0] *356:A 48.1354 
*END

*D_NET *18 0.0012722
*CONN
*P sel[1] I
*I *357:A I *D sky130_fd_sc_hd__buf_1
*CAP
1 sel[1] 0.000555473
2 *357:A 0
3 *18:13 0.000555473
4 *18:13 *94:10 0.000102971
5 *3:13 *18:13 5.82853e-05
*RES
1 sel[1] *18:13 27.5736 
2 *18:13 *357:A 23 
*END

*D_NET *19 0.000754198
*CONN
*P sel[2] I
*I *358:A I *D sky130_fd_sc_hd__buf_1
*CAP
1 sel[2] 0.000377099
2 *358:A 0
3 *19:15 0.000377099
*RES
1 sel[2] *19:15 27.6742 
2 *19:15 *358:A 23 
*END

*D_NET *20 0.000268724
*CONN
*I *348:D I *D sky130_fd_sc_hd__dfxtp_1
*I *301:X O *D sky130_fd_sc_hd__clkbuf_1
*CAP
1 *348:D 0.000127247
2 *301:X 0.000127247
3 *348:D *348:CLK 1.42306e-05
*RES
1 *301:X *348:D 48.3873 
*END

*D_NET *21 0.00141549
*CONN
*I *349:D I *D sky130_fd_sc_hd__dfxtp_1
*I *317:Y O *D sky130_fd_sc_hd__a311oi_1
*CAP
1 *349:D 0
2 *317:Y 0.000450272
3 *21:8 0.000450272
4 *21:8 *317:A1 0.000230492
5 *21:8 *317:B1 1.08287e-05
6 *21:8 *317:C1 7.51453e-06
7 *21:8 *52:12 0.000184527
8 *21:8 *83:12 8.15864e-05
*RES
1 *317:Y *21:8 32.5337 
2 *21:8 *349:D 23 
*END

*D_NET *22 0.000974241
*CONN
*I *350:D I *D sky130_fd_sc_hd__dfxtp_1
*I *332:Y O *D sky130_fd_sc_hd__a311oi_1
*CAP
1 *350:D 0
2 *332:Y 0.000285139
3 *22:10 0.000285139
4 *22:10 *332:A1 0.000104307
5 *22:10 *332:A2 5.3304e-05
6 *22:10 *332:A3 0.000137361
7 *22:10 *332:B1 5.82853e-05
8 *22:10 *332:C1 7.61229e-06
9 *22:10 *350:CLK 3.18142e-05
10 *22:10 *84:29 1.12796e-05
*RES
1 *332:Y *22:10 29.0952 
2 *22:10 *350:D 23 
*END

*D_NET *23 0.00231866
*CONN
*I *351:D I *D sky130_fd_sc_hd__dfxtp_1
*I *347:Y O *D sky130_fd_sc_hd__a311oi_1
*CAP
1 *351:D 0.000267757
2 *347:Y 0.000563732
3 *23:10 0.000831489
4 *351:D *351:CLK 0.00010186
5 *351:D *55:18 9.77405e-05
6 *23:10 *55:10 7.29497e-05
7 *23:10 *95:10 4.22774e-05
8 *23:10 *98:22 0.000340853
*RES
1 *347:Y *23:10 47.0729 
2 *23:10 *351:D 42.8057 
*END

*D_NET *24 0.0145192
*CONN
*I *289:A I *D sky130_fd_sc_hd__or2b_1
*I *302:C I *D sky130_fd_sc_hd__nand4b_1
*I *296:A I *D sky130_fd_sc_hd__or3_1
*I *288:A I *D sky130_fd_sc_hd__nor3b_2
*I *342:A1 I *D sky130_fd_sc_hd__a211o_1
*I *343:C I *D sky130_fd_sc_hd__and4b_1
*I *294:A I *D sky130_fd_sc_hd__and3_1
*I *318:C I *D sky130_fd_sc_hd__nand4b_1
*I *293:C I *D sky130_fd_sc_hd__and3b_1
*I *303:A_N I *D sky130_fd_sc_hd__and2b_1
*I *286:X O *D sky130_fd_sc_hd__buf_2
*CAP
1 *289:A 0.000232056
2 *302:C 3.2443e-05
3 *296:A 0.000269223
4 *288:A 0
5 *342:A1 8.51751e-05
6 *343:C 0
7 *294:A 0
8 *318:C 0.000363376
9 *293:C 0.000387355
10 *303:A_N 4.56183e-05
11 *286:X 0.00011489
12 *24:105 0.000496917
13 *24:96 0.000465763
14 *24:90 0.000735006
15 *24:43 0.00075073
16 *24:34 6.79798e-05
17 *24:32 0.000371366
18 *24:22 0.000747515
19 *24:12 0.000797955
20 *24:8 0.000661597
21 *289:A *289:B_N 1.59094e-05
22 *289:A *97:42 3.22722e-05
23 *293:C *293:B 4.21099e-06
24 *293:C *25:10 8.81402e-05
25 *293:C *25:12 0.000315259
26 *293:C *31:8 3.34276e-06
27 *293:C *32:12 0
28 *293:C *93:54 0
29 *296:A *288:C_N 1.59071e-05
30 *296:A *35:6 0.000230718
31 *296:A *35:91 0.000176747
32 *296:A *86:38 0.000425633
33 *302:C *288:C_N 1.12349e-05
34 *302:C *302:A_N 1.11037e-05
35 *303:A_N *25:6 0.000144494
36 *303:A_N *25:58 4.08664e-05
37 *303:A_N *87:33 0.00018536
38 *318:C *318:A_N 0.000312882
39 *318:C *318:D 3.85196e-05
40 *318:C *25:10 2.4306e-05
41 *318:C *25:73 0
42 *318:C *93:54 5.56279e-05
43 *342:A1 *342:A2 2.97713e-05
44 *342:A1 *342:B1 5.11107e-05
45 *342:A1 *25:90 0.000171107
46 *342:A1 *77:10 1.84917e-05
47 *24:8 *286:A 1.05235e-05
48 *24:12 *25:94 0
49 *24:12 *26:47 8.50364e-05
50 *24:12 *32:40 0.000134411
51 *24:12 *35:54 4.53743e-05
52 *24:12 *64:10 0
53 *24:12 *80:8 0.000371812
54 *24:12 *81:8 3.13192e-05
55 *24:22 *354:A 0.000232959
56 *24:22 *25:90 0.000446212
57 *24:22 *77:10 3.7122e-06
58 *24:22 *80:8 0
59 *24:32 *330:A1 9.41704e-05
60 *24:32 *25:58 0.000114946
61 *24:32 *25:73 0.000385937
62 *24:32 *25:90 0.000175403
63 *24:32 *40:8 0.00021799
64 *24:32 *65:10 9.41704e-05
65 *24:32 *93:54 0.000135557
66 *24:32 *94:79 0.000227473
67 *24:32 *98:32 0.000133316
68 *24:34 *25:58 9.91101e-05
69 *24:34 *40:8 3.22465e-05
70 *24:34 *87:33 1.03955e-05
71 *24:90 *290:B 7.34672e-05
72 *24:90 *26:47 2.33476e-05
73 *24:90 *32:40 2.89936e-05
74 *24:90 *87:33 1.26108e-05
75 *24:90 *93:93 0.000165078
76 *24:96 *25:102 7.85104e-05
77 *24:96 *33:8 0.000130697
78 *24:96 *35:91 1.21972e-05
79 *24:96 *93:93 0.000138349
80 *24:105 *288:C_N 3.00852e-05
81 *24:105 *302:A_N 0.000248385
82 *24:105 *25:102 6.59879e-05
83 *24:105 *35:91 0.000603804
84 *11:17 *24:90 0.000301131
85 *11:17 *24:96 0.000496536
*RES
1 *286:X *24:8 39.5743 
2 *24:8 *24:12 22.8921 
3 *24:12 *24:22 38.3686 
4 *24:22 *24:32 41.2479 
5 *24:32 *24:34 1.09786 
6 *24:34 *303:A_N 25.0507 
7 *24:34 *24:43 15 
8 *24:43 *293:C 44.525 
9 *24:43 *318:C 45.3743 
10 *24:32 *294:A 23 
11 *24:22 *343:C 23 
12 *24:12 *342:A1 25.5479 
13 *24:8 *24:90 6.04857 
14 *24:90 *24:96 22.4571 
15 *24:96 *288:A 23 
16 *24:96 *24:105 7.18786 
17 *24:105 *296:A 31.6171 
18 *24:105 *302:C 23.8493 
19 *24:90 *289:A 40.5271 
*END

*D_NET *25 0.0137727
*CONN
*I *342:B1 I *D sky130_fd_sc_hd__a211o_1
*I *289:B_N I *D sky130_fd_sc_hd__or2b_1
*I *302:A_N I *D sky130_fd_sc_hd__nand4b_1
*I *288:B I *D sky130_fd_sc_hd__nor3b_2
*I *343:A_N I *D sky130_fd_sc_hd__and4b_1
*I *294:C I *D sky130_fd_sc_hd__and3_1
*I *318:A_N I *D sky130_fd_sc_hd__nand4b_1
*I *303:B I *D sky130_fd_sc_hd__and2b_1
*I *293:B I *D sky130_fd_sc_hd__and3b_1
*I *296:C I *D sky130_fd_sc_hd__or3_1
*I *287:X O *D sky130_fd_sc_hd__buf_2
*CAP
1 *342:B1 8.66067e-05
2 *289:B_N 7.23601e-05
3 *302:A_N 0.000130087
4 *288:B 0
5 *343:A_N 0
6 *294:C 0
7 *318:A_N 0.000311943
8 *303:B 0
9 *293:B 5.6477e-05
10 *296:C 0.000482604
11 *287:X 0.000206501
12 *25:102 0.000657159
13 *25:94 0.00101361
14 *25:90 0.00101939
15 *25:73 0.000870326
16 *25:58 0.00052684
17 *25:12 0.000812045
18 *25:10 0.000334746
19 *25:8 0.000373725
20 *25:6 0.000381612
21 *289:B_N *97:42 5.3304e-05
22 *296:C *86:26 1.59914e-05
23 *296:C *86:38 6.54277e-05
24 *296:C *93:35 0
25 *302:A_N *288:C_N 8.15476e-05
26 *318:A_N *318:D 4.344e-05
27 *318:A_N *93:54 1.3523e-05
28 *342:B1 *335:B 5.2273e-05
29 *342:B1 *342:A2 3.51651e-05
30 *25:6 *86:16 3.60211e-06
31 *25:6 *87:14 2.93431e-05
32 *25:6 *87:33 2.46906e-05
33 *25:10 *86:16 0
34 *25:12 *86:16 0
35 *25:12 *93:35 0
36 *25:73 *330:A1 8.56254e-05
37 *25:73 *330:A2 5.50106e-05
38 *25:73 *65:10 4.80826e-05
39 *25:73 *86:79 0.000204917
40 *25:73 *93:54 6.22448e-06
41 *25:90 *343:D 6.51022e-06
42 *25:90 *78:10 7.18634e-06
43 *25:90 *86:79 0.000129205
44 *25:90 *86:90 4.24099e-05
45 *25:94 *290:B 0.000185418
46 *25:94 *335:B 3.30925e-05
47 *25:94 *26:47 4.30964e-05
48 *25:94 *33:8 0.000100504
49 *25:94 *35:54 9.16974e-05
50 *25:94 *81:8 0.000113235
51 *25:94 *87:33 0.000164037
52 *25:94 *93:93 3.54884e-05
53 *25:94 *95:26 0.00019654
54 *25:94 *99:27 2.34364e-05
55 *25:94 *100:42 0.000544456
56 *25:94 *100:52 0.000113235
57 *25:102 *33:8 0.000392982
58 *25:102 *35:91 6.59259e-05
59 *25:102 *35:104 4.21921e-05
60 *25:102 *100:42 0.000493967
61 *289:A *289:B_N 1.59094e-05
62 *293:C *293:B 4.21099e-06
63 *293:C *25:10 8.81402e-05
64 *293:C *25:12 0.000315259
65 *302:C *302:A_N 1.11037e-05
66 *303:A_N *25:6 0.000144494
67 *303:A_N *25:58 4.08664e-05
68 *318:C *318:A_N 0.000312882
69 *318:C *25:10 2.4306e-05
70 *318:C *25:73 0
71 *342:A1 *342:B1 5.11107e-05
72 *342:A1 *25:90 0.000171107
73 *24:12 *25:94 0
74 *24:22 *25:90 0.000446212
75 *24:32 *25:58 0.000114946
76 *24:32 *25:73 0.000385937
77 *24:32 *25:90 0.000175403
78 *24:34 *25:58 9.91101e-05
79 *24:96 *25:102 7.85104e-05
80 *24:105 *302:A_N 0.000248385
81 *24:105 *25:102 6.59879e-05
*RES
1 *287:X *25:6 26.0036 
2 *25:6 *25:8 15 
3 *25:8 *25:10 1.55357 
4 *25:10 *25:12 6.13143 
5 *25:12 *296:C 46.6586 
6 *25:12 *293:B 38.6214 
7 *25:10 *303:B 38 
8 *25:8 *318:A_N 44.9393 
9 *25:6 *25:58 2.66179 
10 *25:58 *294:C 23 
11 *25:58 *25:73 38.2546 
12 *25:73 *343:A_N 23 
13 *25:73 *25:90 41.6207 
14 *25:90 *25:94 28.1743 
15 *25:94 *25:102 26.7657 
16 *25:102 *288:B 23 
17 *25:102 *302:A_N 27.0496 
18 *25:94 *289:B_N 39.4707 
19 *25:90 *342:B1 25.0921 
*END

*D_NET *26 0.00784605
*CONN
*I *292:B1 I *D sky130_fd_sc_hd__o22a_1
*I *313:B1 I *D sky130_fd_sc_hd__o22a_1
*I *344:B1 I *D sky130_fd_sc_hd__o21a_1
*I *328:B1 I *D sky130_fd_sc_hd__o22a_1
*I *288:Y O *D sky130_fd_sc_hd__nor3b_2
*CAP
1 *292:B1 0.000409747
2 *313:B1 0
3 *344:B1 0
4 *328:B1 0
5 *288:Y 9.61228e-05
6 *26:47 0.0007242
7 *26:28 0.00116498
8 *26:16 0.000952123
9 *26:10 0.000921095
10 *26:8 9.61228e-05
11 *292:B1 *291:A1 1.72872e-05
12 *292:B1 *29:8 0.000449278
13 *292:B1 *30:10 0.000229458
14 *292:B1 *85:23 6.1986e-05
15 *292:B1 *85:25 5.50049e-05
16 *292:B1 *85:39 0.00015601
17 *292:B1 *96:34 0.00017971
18 *26:8 *93:78 0.000239879
19 *26:16 *35:40 5.69127e-05
20 *26:16 *85:39 0.000373723
21 *26:28 *354:A 6.78755e-06
22 *26:28 *31:25 0.000117988
23 *26:28 *35:40 0.000299963
24 *26:28 *48:20 9.90115e-05
25 *26:28 *82:18 5.16923e-05
26 *26:28 *85:39 0
27 *26:47 *354:A 2.02529e-05
28 *26:47 *31:25 9.49263e-06
29 *26:47 *82:12 0.000539089
30 *26:47 *87:33 0.000124763
31 *11:17 *26:8 0.00024189
32 *24:12 *26:47 8.50364e-05
33 *24:90 *26:47 2.33476e-05
34 *25:94 *26:47 4.30964e-05
*RES
1 *288:Y *26:8 41.3143 
2 *26:8 *26:10 15 
3 *26:10 *26:16 24.6529 
4 *26:16 *26:28 39.0729 
5 *26:28 *328:B1 38 
6 *26:28 *26:47 35.7174 
7 *26:47 *344:B1 23 
8 *26:16 *313:B1 38 
9 *26:10 *292:B1 34.1909 
*END

*D_NET *27 0.00427932
*CONN
*I *341:C1 I *D sky130_fd_sc_hd__a311o_1
*I *291:B1 I *D sky130_fd_sc_hd__a22oi_1
*I *289:X O *D sky130_fd_sc_hd__or2b_1
*CAP
1 *341:C1 0
2 *291:B1 0.000259631
3 *289:X 0.000114164
4 *27:25 0.00121077
5 *27:8 0.00158456
6 *291:B1 *291:A1 5.79559e-05
7 *291:B1 *291:A2 0.000127107
8 *291:B1 *29:8 5.02158e-05
9 *291:B1 *85:25 0.000277792
10 *291:B1 *85:65 0
11 *291:B1 *85:84 1.58805e-05
12 *291:B1 *96:28 0
13 *291:B1 *100:42 0
14 *27:8 *97:42 3.39868e-05
15 *27:25 *290:A 0
16 *27:25 *55:10 0
17 *27:25 *70:21 0
18 *27:25 *82:12 7.48333e-05
19 *27:25 *88:25 6.04114e-05
20 *27:25 *95:10 0.000279072
21 *27:25 *95:20 0.000132942
22 *27:25 *96:20 0
23 *27:25 *96:22 0
24 *27:25 *96:28 0
25 *27:25 *100:42 0
*RES
1 *289:X *27:8 39.5743 
2 *27:8 *291:B1 44.3179 
3 *27:8 *27:25 38.6764 
4 *27:25 *341:C1 23 
*END

*D_NET *28 0.00450475
*CONN
*I *327:B1 I *D sky130_fd_sc_hd__a21oi_1
*I *312:B1 I *D sky130_fd_sc_hd__a21oi_1
*I *291:B2 I *D sky130_fd_sc_hd__a22oi_1
*I *290:X O *D sky130_fd_sc_hd__or3b_1
*CAP
1 *327:B1 0.000259839
2 *312:B1 0
3 *291:B2 0.000429035
4 *290:X 0.000460613
5 *28:10 0.000603363
6 *28:8 0.00089478
7 *291:B2 *82:18 0.000166129
8 *291:B2 *85:39 0.000606718
9 *291:B2 *97:21 0.000166532
10 *327:B1 *327:A2 0.00010476
11 *327:B1 *328:B2 1.68796e-05
12 *327:B1 *354:A 2.26497e-05
13 *327:B1 *32:40 0
14 *327:B1 *64:10 1.47795e-05
15 *327:B1 *82:18 0.000108654
16 *28:8 *290:B 1.24298e-05
17 *28:8 *295:A2 4.73384e-05
18 *28:8 *295:B2 5.56279e-05
19 *28:8 *48:20 0.000125555
20 *28:8 *93:93 9.66668e-05
21 *28:10 *82:18 0.000275388
22 *28:10 *85:65 0
23 *28:10 *97:21 3.70094e-05
*RES
1 *290:X *28:8 44.3386 
2 *28:8 *28:10 4.01857 
3 *28:10 *291:B2 47.0729 
4 *28:10 *312:B1 38 
5 *28:8 *327:B1 42.1532 
*END

*D_NET *29 0.000874726
*CONN
*I *292:B2 I *D sky130_fd_sc_hd__o22a_1
*I *291:Y O *D sky130_fd_sc_hd__a22oi_1
*CAP
1 *292:B2 0
2 *291:Y 8.94711e-05
3 *29:8 8.94711e-05
4 *29:8 *291:A1 5.79559e-05
5 *29:8 *291:A2 0.000127107
6 *29:8 *85:25 1.12268e-05
7 *291:B1 *29:8 5.02158e-05
8 *292:B1 *29:8 0.000449278
*RES
1 *291:Y *29:8 27.4536 
2 *29:8 *292:B2 23 
*END

*D_NET *30 0.000944992
*CONN
*I *298:A I *D sky130_fd_sc_hd__or3b_1
*I *292:X O *D sky130_fd_sc_hd__o22a_1
*CAP
1 *298:A 5.95733e-05
2 *292:X 0.000248571
3 *30:10 0.000308144
4 *298:A *35:104 5.8118e-05
5 *30:10 *100:42 4.11274e-05
6 *292:B1 *30:10 0.000229458
*RES
1 *292:X *30:10 41.7286 
2 *30:10 *298:A 39.4707 
*END

*D_NET *31 0.00376911
*CONN
*I *295:A2 I *D sky130_fd_sc_hd__a22o_1
*I *329:A2 I *D sky130_fd_sc_hd__a221o_1
*I *314:A2 I *D sky130_fd_sc_hd__a221o_1
*I *293:X O *D sky130_fd_sc_hd__and3b_1
*CAP
1 *295:A2 0.00038419
2 *329:A2 0
3 *314:A2 2.30556e-05
4 *293:X 0.000153878
5 *31:25 0.000363348
6 *31:17 0.00102668
7 *31:8 0.000456076
8 *295:A2 *290:B 1.82877e-06
9 *295:A2 *295:B2 4.17387e-05
10 *295:A2 *48:20 0.000493085
11 *295:A2 *93:93 6.03378e-05
12 *31:8 *51:8 3.09497e-05
13 *31:17 *314:B2 1.28818e-05
14 *31:17 *48:20 9.41704e-05
15 *31:17 *51:8 0.000142338
16 *31:25 *32:21 7.27694e-06
17 *31:25 *35:40 5.65797e-05
18 *31:25 *94:48 0.000242534
19 *293:C *31:8 3.34276e-06
20 *26:28 *31:25 0.000117988
21 *26:47 *31:25 9.49263e-06
22 *28:8 *295:A2 4.73384e-05
*RES
1 *293:X *31:8 25.9984 
2 *31:8 *314:A2 23.4971 
3 *31:8 *31:17 5.41161 
4 *31:17 *31:25 36.3023 
5 *31:25 *329:A2 23 
6 *31:17 *295:A2 31.555 
*END

*D_NET *32 0.00403918
*CONN
*I *345:A2 I *D sky130_fd_sc_hd__a211oi_1
*I *295:B1 I *D sky130_fd_sc_hd__a22o_1
*I *329:B1 I *D sky130_fd_sc_hd__a221o_1
*I *314:B1 I *D sky130_fd_sc_hd__a221o_1
*I *294:X O *D sky130_fd_sc_hd__and3_1
*CAP
1 *345:A2 1.56105e-05
2 *295:B1 0
3 *329:B1 1.72917e-05
4 *314:B1 0
5 *294:X 1.56031e-05
6 *32:40 0.00036493
7 *32:30 0.00047669
8 *32:21 0.000306607
9 *32:12 0.000211374
10 *32:6 0.000420143
11 *32:6 *40:8 5.56279e-05
12 *32:6 *87:33 5.56279e-05
13 *32:12 *93:35 5.58975e-06
14 *32:12 *93:54 0.000165311
15 *32:12 *94:56 0.000184227
16 *32:21 *329:A1 1.08287e-05
17 *32:21 *40:8 0.000265472
18 *32:21 *65:10 8.06804e-06
19 *32:21 *87:33 0.000466078
20 *32:30 *329:A1 7.19562e-05
21 *32:30 *329:C1 9.67842e-05
22 *32:30 *87:33 0.000154324
23 *32:30 *94:87 1.4006e-05
24 *32:40 *329:A1 1.08287e-05
25 *32:40 *345:B1 2.46906e-05
26 *32:40 *345:C1 5.56279e-05
27 *32:40 *64:10 0
28 *32:40 *85:65 9.28078e-06
29 *32:40 *87:33 0.000233359
30 *32:40 *95:35 1.83618e-05
31 *293:C *32:12 0
32 *327:B1 *32:40 0
33 *11:17 *32:40 0.000134204
34 *24:12 *32:40 0.000134411
35 *24:90 *32:40 2.89936e-05
36 *31:25 *32:21 7.27694e-06
*RES
1 *294:X *32:6 23.6214 
2 *32:6 *32:12 35.075 
3 *32:12 *314:B1 23 
4 *32:6 *32:21 5.88286 
5 *32:21 *329:B1 23.4971 
6 *32:21 *32:30 3.48 
7 *32:30 *32:40 37.7471 
8 *32:40 *295:B1 23 
9 *32:30 *345:A2 23.4971 
*END

*D_NET *33 0.00143316
*CONN
*I *298:B I *D sky130_fd_sc_hd__or3b_1
*I *295:X O *D sky130_fd_sc_hd__a22o_1
*CAP
1 *298:B 5.2373e-05
2 *295:X 0.000233412
3 *33:8 0.000285785
4 *298:B *35:91 4.91172e-06
5 *298:B *35:104 1.84831e-05
6 *33:8 *93:93 0.000214015
7 *24:96 *33:8 0.000130697
8 *25:94 *33:8 0.000100504
9 *25:102 *33:8 0.000392982
*RES
1 *295:X *33:8 44.8357 
2 *33:8 *298:B 38.6214 
*END

*D_NET *34 0.000419249
*CONN
*I *297:A I *D sky130_fd_sc_hd__clkbuf_2
*I *296:X O *D sky130_fd_sc_hd__or3_1
*CAP
1 *297:A 0.000108298
2 *296:X 0.000108298
3 *297:A *86:38 0.000202652
*RES
1 *296:X *297:A 48.5479 
*END

*D_NET *35 0.013291
*CONN
*I *299:B1 I *D sky130_fd_sc_hd__a21o_1
*I *298:C_N I *D sky130_fd_sc_hd__or3b_1
*I *331:B1 I *D sky130_fd_sc_hd__a21oi_1
*I *332:A1 I *D sky130_fd_sc_hd__a311oi_1
*I *346:B1 I *D sky130_fd_sc_hd__a21oi_1
*I *316:B1 I *D sky130_fd_sc_hd__a21oi_1
*I *317:A1 I *D sky130_fd_sc_hd__a311oi_1
*I *297:X O *D sky130_fd_sc_hd__clkbuf_2
*CAP
1 *299:B1 0
2 *298:C_N 0
3 *331:B1 2.64512e-05
4 *332:A1 0.000287697
5 *346:B1 0
6 *316:B1 0.000106767
7 *317:A1 0.000446607
8 *297:X 0.000164533
9 *35:104 0.000406805
10 *35:91 0.00109302
11 *35:63 0.000417273
12 *35:54 0.00067154
13 *35:40 0.00135675
14 *35:10 0.000700164
15 *35:8 0.000728878
16 *35:6 0.000850749
17 *316:B1 *348:CLK 0.000363262
18 *316:B1 *97:6 0.000197984
19 *317:A1 *39:12 0.000134741
20 *317:A1 *52:12 0.000180054
21 *331:B1 *94:44 4.89938e-05
22 *331:B1 *98:32 7.6774e-06
23 *332:A1 *332:C1 4.98295e-05
24 *332:A1 *98:32 2.23467e-05
25 *35:10 *39:12 0.000112396
26 *35:10 *52:12 6.05409e-05
27 *35:10 *85:39 4.41821e-06
28 *35:40 *315:A1 0.000343281
29 *35:40 *330:A1 0.000164282
30 *35:40 *52:12 0.000153623
31 *35:40 *85:39 8.13688e-05
32 *35:40 *94:44 5.56001e-05
33 *35:40 *94:48 0.000372037
34 *35:40 *98:32 6.66066e-05
35 *35:54 *81:8 1.0092e-05
36 *35:54 *86:79 0.000326365
37 *35:54 *86:90 0.000476343
38 *35:54 *94:44 2.23467e-05
39 *35:63 *94:44 0.000273816
40 *35:63 *98:32 7.15727e-05
41 *35:104 *299:A2 0.000140875
42 *35:104 *36:10 5.40337e-05
43 *35:104 *85:84 0.000140875
44 *296:A *35:6 0.000230718
45 *296:A *35:91 0.000176747
46 *298:A *35:104 5.8118e-05
47 *298:B *35:91 4.91172e-06
48 *298:B *35:104 1.84831e-05
49 *21:8 *317:A1 0.000230492
50 *22:10 *332:A1 0.000104307
51 *24:12 *35:54 4.53743e-05
52 *24:96 *35:91 1.21972e-05
53 *24:105 *35:91 0.000603804
54 *25:94 *35:54 9.16974e-05
55 *25:102 *35:91 6.59259e-05
56 *25:102 *35:104 4.21921e-05
57 *26:16 *35:40 5.69127e-05
58 *26:28 *35:40 0.000299963
59 *31:25 *35:40 5.65797e-05
*RES
1 *297:X *35:6 25.5271 
2 *35:6 *35:8 15 
3 *35:8 *35:10 3.31429 
4 *35:10 *317:A1 46.1407 
5 *35:10 *316:B1 42.4536 
6 *35:8 *35:40 17.8454 
7 *35:40 *35:54 41.3618 
8 *35:54 *346:B1 38 
9 *35:40 *35:63 3.66643 
10 *35:63 *332:A1 41.9461 
11 *35:63 *331:B1 38.6732 
12 *35:6 *35:91 11.02 
13 *35:91 *298:C_N 23 
14 *35:91 *35:104 37.9957 
15 *35:104 *299:B1 23 
*END

*D_NET *36 0.000662189
*CONN
*I *300:B I *D sky130_fd_sc_hd__and3b_1
*I *298:X O *D sky130_fd_sc_hd__or3b_1
*CAP
1 *300:B 0
2 *298:X 0.000249637
3 *36:10 0.000249637
4 *36:10 *100:25 4.21156e-05
5 *36:10 *100:42 6.67651e-05
6 *35:104 *36:10 5.40337e-05
*RES
1 *298:X *36:10 42.06 
2 *36:10 *300:B 38 
*END

*D_NET *37 0.000344697
*CONN
*I *300:C I *D sky130_fd_sc_hd__and3b_1
*I *299:X O *D sky130_fd_sc_hd__a21o_1
*CAP
1 *300:C 0.000127871
2 *299:X 0.000127871
3 *300:C *348:CLK 3.63928e-05
4 *300:C *38:10 5.25626e-05
*RES
1 *299:X *300:C 48.5271 
*END

*D_NET *38 0.000900289
*CONN
*I *301:A I *D sky130_fd_sc_hd__clkbuf_1
*I *300:X O *D sky130_fd_sc_hd__and3b_1
*CAP
1 *301:A 0
2 *300:X 0.000135787
3 *38:10 0.000135787
4 *38:10 *299:A2 9.05715e-05
5 *38:10 *348:CLK 0.000485582
6 *300:C *38:10 5.25626e-05
*RES
1 *300:X *38:10 29.2971 
2 *38:10 *301:A 23 
*END

*D_NET *39 0.000855035
*CONN
*I *317:A2 I *D sky130_fd_sc_hd__a311oi_1
*I *302:Y O *D sky130_fd_sc_hd__nand4b_1
*CAP
1 *317:A2 0
2 *302:Y 0.000303949
3 *39:12 0.000303949
4 *317:A1 *39:12 0.000134741
5 *35:10 *39:12 0.000112396
*RES
1 *302:Y *39:12 43.8414 
2 *39:12 *317:A2 38 
*END

*D_NET *40 0.00305911
*CONN
*I *330:A1 I *D sky130_fd_sc_hd__a21oi_1
*I *315:A1 I *D sky130_fd_sc_hd__a21oi_1
*I *303:X O *D sky130_fd_sc_hd__and2b_1
*CAP
1 *330:A1 0.000305425
2 *315:A1 0.000168609
3 *303:X 0.00013806
4 *40:8 0.000612094
5 *315:A1 *98:32 0.000187988
6 *330:A1 *98:32 0.000154138
7 *40:8 *65:10 2.62931e-05
8 *40:8 *87:33 0.000207806
9 *24:32 *330:A1 9.41704e-05
10 *24:32 *40:8 0.00021799
11 *24:34 *40:8 3.22465e-05
12 *25:73 *330:A1 8.56254e-05
13 *32:6 *40:8 5.56279e-05
14 *32:21 *40:8 0.000265472
15 *35:40 *315:A1 0.000343281
16 *35:40 *330:A1 0.000164282
*RES
1 *303:X *40:8 43.8621 
2 *40:8 *315:A1 42.7229 
3 *40:8 *330:A1 43.2614 
*END

*D_NET *41 0.0051855
*CONN
*I *321:A1 I *D sky130_fd_sc_hd__a21oi_2
*I *322:B I *D sky130_fd_sc_hd__and3_1
*I *336:B1 I *D sky130_fd_sc_hd__o21a_1
*I *305:A2 I *D sky130_fd_sc_hd__a21bo_1
*I *306:B I *D sky130_fd_sc_hd__nand3b_1
*I *304:Y O *D sky130_fd_sc_hd__nand3b_2
*CAP
1 *321:A1 0
2 *322:B 0.000154211
3 *336:B1 0.000205895
4 *305:A2 8.46913e-05
5 *306:B 0
6 *304:Y 6.72266e-05
7 *41:57 0.000348156
8 *41:34 0.000984891
9 *41:19 0.00082307
10 *41:8 0.000220554
11 *305:A2 *305:A1 6.81572e-05
12 *305:A2 *308:A2 3.89058e-05
13 *305:A2 *319:B1 9.79925e-05
14 *322:B *321:A2 5.47983e-06
15 *322:B *322:A 1.24376e-05
16 *322:B *322:C 3.73532e-05
17 *322:B *56:21 3.18142e-05
18 *322:B *58:14 0.000145154
19 *336:B1 *321:B1 9.79925e-05
20 *336:B1 *336:A2 2.89254e-05
21 *336:B1 *56:8 0.000134767
22 *336:B1 *57:20 0.000269237
23 *336:B1 *98:22 1.04117e-05
24 *336:B1 *98:59 7.19778e-05
25 *41:8 *309:A 2.95125e-05
26 *41:8 *46:10 0.000143277
27 *41:8 *47:16 4.06205e-05
28 *41:8 *99:16 0.000113389
29 *41:19 *309:A 0.000159064
30 *41:19 *47:16 6.39021e-05
31 *41:34 *307:C 3.1231e-05
32 *41:34 *309:A 3.74003e-05
33 *41:34 *42:12 8.78864e-05
34 *41:34 *44:10 7.23684e-06
35 *41:34 *47:16 3.70094e-05
36 *41:34 *92:10 0
37 *41:34 *97:53 8.00093e-06
38 *41:34 *98:22 0.000132523
39 *41:57 *56:8 0.000162254
40 *41:57 *56:21 0.000145004
41 *41:57 *57:20 6.17437e-06
42 *41:57 *58:14 4.1716e-05
*RES
1 *304:Y *41:8 40.61 
2 *41:8 *306:B 38 
3 *41:8 *41:19 2.87929 
4 *41:19 *305:A2 40.4443 
5 *41:19 *41:34 12.2939 
6 *41:34 *336:B1 44.0796 
7 *41:34 *41:57 19.9818 
8 *41:57 *322:B 26.8736 
9 *41:57 *321:A1 23 
*END

*D_NET *42 0.00083947
*CONN
*I *308:A1 I *D sky130_fd_sc_hd__a21o_1
*I *307:B I *D sky130_fd_sc_hd__and3_1
*I *305:X O *D sky130_fd_sc_hd__a21bo_1
*CAP
1 *308:A1 9.58185e-05
2 *307:B 0
3 *305:X 0
4 *42:12 0.000163227
5 *42:4 0.000259046
6 *308:A1 *308:A2 7.84426e-05
7 *42:12 *308:A2 1.34995e-05
8 *42:12 *319:B1 5.5792e-05
9 *42:12 *44:10 8.57577e-05
10 *41:34 *42:12 8.78864e-05
*RES
1 *305:X *42:4 23 
2 *42:4 *42:12 32.7757 
3 *42:12 *307:B 23 
4 *42:4 *308:A1 25.4443 
*END

*D_NET *43 0.00134209
*CONN
*I *307:C I *D sky130_fd_sc_hd__and3_1
*I *308:A2 I *D sky130_fd_sc_hd__a21o_1