*SPEF "ieee 1481-1999"
*DESIGN "alu4bit"
*DATE "11:11:11 Fri 11 11, 1111"
*VENDOR "OpenRCX"
*PROGRAM "Parallel Extraction"
*VERSION "1.0"
*DESIGN_FLOW "NAME_SCOPE LOCAL" "PIN_CAP NONE"
*DIVIDER /
*DELIMITER :
*BUS_DELIMITER []
*T_UNIT 1 NS
*C_UNIT 1 PF
*R_UNIT 1 OHM
*L_UNIT 1 HENRY

*NAME_MAP
*1 A[0]
*2 A[1]
*3 A[2]
*4 A[3]
*5 B[0]
*6 B[1]
*7 B[2]
*8 B[3]
*11 clk
*12 result[0]
*13 result[1]
*14 result[2]
*15 result[3]
*16 rst
*17 sel[0]
*18 sel[1]
*19 sel[2]
*20 _000_
*21 _001_
*22 _002_
*23 _003_
*24 _004_
*25 _005_
*26 _006_
*27 _007_
*28 _008_
*29 _009_
*30 _010_
*31 _011_
*32 _012_
*33 _013_
*34 _014_
*35 _015_
*36 _016_
*37 _017_
*38 _018_
*39 _019_
*40 _020_
*41 _021_
*42 _022_
*43 _023_
*44 _024_
*45 _025_
*46 _026_
*47 _027_
*48 _028_
*49 _029_
*50 _030_
*51 _031_
*52 _032_
*53 _033_
*54 _034_
*55 _035_
*56 _036_
*57 _037_
*58 _038_
*59 _039_
*60 _040_
*61 _041_
*62 _042_
*63 _043_
*64 _044_
*65 _045_
*66 _046_
*67 _047_
*68 _048_
*69 _049_
*70 _050_
*71 _051_
*72 _052_
*73 _053_
*74 _054_
*75 _055_
*76 _056_
*77 _057_
*78 _058_
*79 _059_
*80 _060_
*81 _061_
*82 clknet_0_clk
*83 clknet_1_0__leaf_clk
*84 clknet_1_1__leaf_clk
*85 net1
*86 net10
*87 net11
*88 net12
*89 net13
*90 net14
*91 net15
*92 net16
*93 net2
*94 net3
*95 net4
*96 net5
*97 net6
*98 net7
*99 net8
*100 net9
*101 FILLER_0_0_19
*102 FILLER_0_0_27
*103 FILLER_0_0_36
*104 FILLER_0_0_44
*105 FILLER_0_0_48
*106 FILLER_0_0_57
*107 FILLER_0_0_69
*108 FILLER_0_0_76
*109 FILLER_0_0_85
*110 FILLER_0_10_19
*111 FILLER_0_10_27
*112 FILLER_0_10_33
*113 FILLER_0_10_41
*114 FILLER_0_10_51
*115 FILLER_0_10_63
*116 FILLER_0_10_75
*117 FILLER_0_10_79
*118 FILLER_0_10_85
*119 FILLER_0_11_19
*120 FILLER_0_11_31
*121 FILLER_0_11_43
*122 FILLER_0_11_55
*123 FILLER_0_11_57
*124 FILLER_0_11_69
*125 FILLER_0_11_7
*126 FILLER_0_12_15
*127 FILLER_0_12_23
*128 FILLER_0_12_27
*129 FILLER_0_12_29
*130 FILLER_0_12_3
*131 FILLER_0_12_37
*132 FILLER_0_12_55
*133 FILLER_0_12_67
*134 FILLER_0_12_73
*135 FILLER_0_12_81
*136 FILLER_0_12_85
*137 FILLER_0_13_15
*138 FILLER_0_13_3
*139 FILLER_0_13_30
*140 FILLER_0_13_36
*141 FILLER_0_13_42
*142 FILLER_0_13_48
*143 FILLER_0_13_52
*144 FILLER_0_13_62
*145 FILLER_0_13_70
*146 FILLER_0_13_84
*147 FILLER_0_14_10
*148 FILLER_0_14_22
*149 FILLER_0_14_29
*150 FILLER_0_14_35
*151 FILLER_0_14_47
*152 FILLER_0_14_55
*153 FILLER_0_14_57
*154 FILLER_0_14_63
*155 FILLER_0_14_71
*156 FILLER_0_14_85
*157 FILLER_0_1_15
*158 FILLER_0_1_40
*159 FILLER_0_1_55
*160 FILLER_0_1_7
*161 FILLER_0_2_13
*162 FILLER_0_2_19
*163 FILLER_0_2_25
*164 FILLER_0_2_46
*165 FILLER_0_2_55
*166 FILLER_0_2_67
*167 FILLER_0_2_79
*168 FILLER_0_2_83
*169 FILLER_0_2_85
*170 FILLER_0_2_9
*171 FILLER_0_3_15
*172 FILLER_0_3_27
*173 FILLER_0_3_3
*174 FILLER_0_3_39
*175 FILLER_0_3_47
*176 FILLER_0_3_64
*177 FILLER_0_3_76
*178 FILLER_0_3_84
*179 FILLER_0_4_15
*180 FILLER_0_4_27
*181 FILLER_0_4_3
*182 FILLER_0_4_40
*183 FILLER_0_4_48
*184 FILLER_0_4_56
*185 FILLER_0_4_68
*186 FILLER_0_4_80
*187 FILLER_0_4_85
*188 FILLER_0_5_15
*189 FILLER_0_5_29
*190 FILLER_0_5_3
*191 FILLER_0_5_41
*192 FILLER_0_5_57
*193 FILLER_0_5_69
*194 FILLER_0_5_7
*195 FILLER_0_5_83
*196 FILLER_0_6_21
*197 FILLER_0_6_27
*198 FILLER_0_6_40
*199 FILLER_0_6_74
*200 FILLER_0_6_80
*201 FILLER_0_6_85
*202 FILLER_0_6_9
*203 FILLER_0_7_21
*204 FILLER_0_7_27
*205 FILLER_0_7_3
*206 FILLER_0_7_36
*207 FILLER_0_7_51
*208 FILLER_0_7_55
*209 FILLER_0_7_57
*210 FILLER_0_7_69
*211 FILLER_0_7_82
*212 FILLER_0_8_15
*213 FILLER_0_8_19
*214 FILLER_0_8_24
*215 FILLER_0_8_29
*216 FILLER_0_8_3
*217 FILLER_0_8_39
*218 FILLER_0_8_47
*219 FILLER_0_8_52
*220 FILLER_0_8_60
*221 FILLER_0_8_83
*222 FILLER_0_8_85
*223 FILLER_0_9_3
*224 FILLER_0_9_36
*225 FILLER_0_9_44
*226 FILLER_0_9_53
*227 FILLER_0_9_64
*228 FILLER_0_9_70
*229 FILLER_0_9_76
*230 FILLER_0_9_84
*231 PHY_0
*232 PHY_1
*233 PHY_10
*234 PHY_11
*235 PHY_12
*236 PHY_13
*237 PHY_14
*238 PHY_15
*239 PHY_16
*240 PHY_17
*241 PHY_18
*242 PHY_19
*243 PHY_2
*244 PHY_20
*245 PHY_21
*246 PHY_22
*247 PHY_23
*248 PHY_24
*249 PHY_25
*250 PHY_26
*251 PHY_27
*252 PHY_28
*253 PHY_29
*254 PHY_3
*255 PHY_4
*256 PHY_5
*257 PHY_6
*258 PHY_7
*259 PHY_8
*260 PHY_9
*261 TAP_30
*262 TAP_31
*263 TAP_32
*264 TAP_33
*265 TAP_34
*266 TAP_35
*267 TAP_36
*268 TAP_37
*269 TAP_38
*270 TAP_39
*271 TAP_40
*272 TAP_41
*273 TAP_42
*274 TAP_43
*275 TAP_44
*276 TAP_45
*277 TAP_46
*278 TAP_47
*279 TAP_48
*280 TAP_49
*281 TAP_50
*282 TAP_51
*283 TAP_52
*284 TAP_53
*285 TAP_54
*286 _062_
*287 _063_
*288 _064_
*289 _065_
*290 _066_
*291 _067_
*292 _068_
*293 _069_
*294 _070_
*295 _071_
*296 _072_
*297 _073_
*298 _074_
*299 _075_
*300 _076_
*301 _077_
*302 _078_
*303 _079_
*304 _080_
*305 _081_
*306 _082_
*307 _083_
*308 _084_
*309 _085_
*310 _086_
*311 _087_
*312 _088_
*313 _089_
*314 _090_
*315 _091_
*316 _092_
*317 _093_
*318 _094_
*319 _095_
*320 _096_
*321 _097_
*322 _098_
*323 _099_
*324 _100_
*325 _101_
*326 _102_
*327 _103_
*328 _104_
*329 _105_
*330 _106_
*331 _107_
*332 _108_
*333 _109_
*334 _110_
*335 _111_
*336 _112_
*337 _113_
*338 _114_
*339 _115_
*340 _116_
*341 _117_
*342 _118_
*343 _119_
*344 _120_
*345 _121_
*346 _122_
*347 _123_
*348 _124_
*349 _125_
*350 _126_
*351 _127_
*352 clkbuf_0_clk
*353 clkbuf_1_0__f_clk
*354 clkbuf_1_1__f_clk
*355 input1
*356 input10
*357 input11
*358 input12
*359 input2
*360 input3
*361 input4
*362 input5
*363 input6
*364 input7
*365 input8
*366 input9
*367 output13
*368 output14
*369 output15
*370 output16

*PORTS
A[0] I
A[1] I
A[2] I
A[3] I
B[0] I
B[1] I
B[2] I
B[3] I
clk I
result[0] O
result[1] O
result[2] O
result[3] O
rst I
sel[0] I
sel[1] I
sel[2] I

*D_NET *1 0.000805235
*CONN
*P A[0] I
*I *355:A I *D sky130_fd_sc_hd__clkbuf_2
*CAP
1 A[0] 0.000402618
2 *355:A 0.000402618
*RES
1 A[0] *355:A 8.18023 
*END

*D_NET *2 0.00145533
*CONN
*P A[1] I
*I *359:A I *D sky130_fd_sc_hd__buf_2
*CAP
1 A[1] 0.000727665
2 *359:A 0.000727665
*RES
1 A[1] *359:A 15.87 
*END

*D_NET *3 0.000840362
*CONN
*P A[2] I
*I *360:A I *D sky130_fd_sc_hd__buf_2
*CAP
1 A[2] 0.000395711
2 *360:A 0.000395711
3 *360:A *357:A 4.89395e-05
*RES
1 A[2] *360:A 9.70043 
*END

*D_NET *4 0.000953805
*CONN
*P A[3] I
*I *361:A I *D sky130_fd_sc_hd__clkbuf_2
*CAP
1 A[3] 0.000433674
2 *361:A 0.000433674
3 *361:A *96:14 8.64565e-05
*RES
1 A[3] *361:A 11.46 
*END

*D_NET *5 0.00092017
*CONN
*P B[0] I
*I *362:A I *D sky130_fd_sc_hd__clkbuf_2
*CAP
1 B[0] 0.000460085
2 *362:A 0.000460085
*RES
1 B[0] *362:A 11.46 
*END

*D_NET *6 0.00166095
*CONN
*P B[1] I
*I *363:A I *D sky130_fd_sc_hd__clkbuf_2
*CAP
1 B[1] 0.000827239
2 *363:A 0.000827239
3 *363:A result[1] 6.46946e-06
*RES
1 B[1] *363:A 17.82 
*END

*D_NET *7 0.00108157
*CONN
*P B[2] I
*I *364:A I *D sky130_fd_sc_hd__clkbuf_2
*CAP
1 B[2] 0.00043942
2 *364:A 0.00043942
3 *364:A result[3] 0.000202727
*RES
1 B[2] *364:A 10.2202 
*END

*D_NET *8 0.000877785
*CONN
*P B[3] I
*I *365:A I *D sky130_fd_sc_hd__buf_1
*CAP
1 B[3] 0.000438892
2 *365:A 0.000438892
*RES
1 B[3] *365:A 11.04 
*END

*D_NET *11 0.00526127
*CONN
*P clk I
*I *352:A I *D sky130_fd_sc_hd__clkbuf_16
*CAP
1 clk 0.00201836
2 *352:A 0.00201836
3 *352:A *295:B1 0.000110821
4 *352:A *295:B2 9.44943e-05
5 *352:A *316:A1 0.000164007
6 *352:A *317:A3 0
7 *352:A *349:CLK 0
8 *352:A *24:90 0.00024791
9 *352:A *24:96 0.000410078
10 *352:A *26:10 0.000197249
11 *352:A *97:21 0
12 *352:A *100:25 0
*RES
1 clk *352:A 25.331 
*END

*D_NET *12 0.000612904
*CONN
*P result[0] O
*I *367:X O *D sky130_fd_sc_hd__buf_2
*CAP
1 result[0] 0.000300983
2 *367:X 0.000300983
3 result[0] *93:10 1.09383e-05
*RES
1 *367:X result[0] 4.9633 
*END

*D_NET *13 0.000883844
*CONN
*P result[1] O
*I *368:X O *D sky130_fd_sc_hd__clkbuf_4
*CAP
1 result[1] 0.000438687
2 *368:X 0.000438687
3 result[1] *368:A 0
4 *363:A result[1] 6.46946e-06
*RES
1 *368:X result[1] 9.11543 
*END

*D_NET *14 0.000546161
*CONN
*P result[2] O
*I *369:X O *D sky130_fd_sc_hd__clkbuf_4
*CAP
1 result[2] 0.000269999
2 *369:X 0.000269999
3 result[2] *86:20 6.16226e-06
*RES
1 *369:X result[2] 4.9633 
*END

*D_NET *15 0.00138667
*CONN
*P result[3] O
*I *370:X O *D sky130_fd_sc_hd__clkbuf_4
*CAP
1 result[3] 0.000579469
2 *370:X 0.000579469
3 result[3] *370:A 2.50059e-05
4 *364:A result[3] 0.000202727
*RES
1 *370:X result[3] 13.11 
*END

*D_NET *16 0.000763257
*CONN
*P rst I
*I *366:A I *D sky130_fd_sc_hd__buf_1
*CAP
1 rst 0.000381629
2 *366:A 0.000381629
*RES
1 rst *366:A 10.455 
*END

*D_NET *17 0.000506292
*CONN
*P sel[0] I
*I *356:A I *D sky130_fd_sc_hd__buf_2
*CAP
1 sel[0] 0.000248353
2 *356:A 0.000248353
3 *356:A *86:8 9.58678e-06
4 *356:A *87:14 0
*RES
1 sel[0] *356:A 5.61177 
*END

*D_NET *18 0.00112821
*CONN
*P sel[1] I
*I *357:A I *D sky130_fd_sc_hd__buf_1
*CAP
1 sel[1] 0.000496406
2 *357:A 0.000496406
3 *357:A *94:10 8.64599e-05
4 *360:A *357:A 4.89395e-05
*RES
1 sel[1] *357:A 12.705 
*END

*D_NET *19 0.000666233
*CONN
*P sel[2] I
*I *358:A I *D sky130_fd_sc_hd__buf_1
*CAP
1 sel[2] 0.000333117
2 *358:A 0.000333117
*RES
1 sel[2] *358:A 7.46197 
*END

*D_NET *20 0.000238392
*CONN
*I *348:D I *D sky130_fd_sc_hd__dfxtp_1
*I *301:X O *D sky130_fd_sc_hd__clkbuf_1
*CAP
1 *348:D 0.000111502
2 *301:X 0.000111502
3 *348:D *348:CLK 1.53871e-05
*RES
1 *301:X *348:D 4.92875 
*END

*D_NET *21 0.00121633
*CONN
*I *349:D I *D sky130_fd_sc_hd__dfxtp_1
*I *317:Y O *D sky130_fd_sc_hd__a311oi_1
*CAP
1 *349:D 0.000381367
2 *317:Y 0.000381367
3 *349:D *317:A1 0.000200201
4 *349:D *317:A3 0.000162311
5 *349:D *317:B1 1.16854e-05
6 *349:D *317:C1 6.69608e-06
7 *349:D *349:CLK 7.27003e-05
*RES
1 *317:Y *349:D 10.1038 
*END

*D_NET *22 0.000798399
*CONN
*I *350:D I *D sky130_fd_sc_hd__dfxtp_1
*I *332:Y O *D sky130_fd_sc_hd__a311oi_1
*CAP
1 *350:D 0.000222743
2 *332:Y 0.000222743
3 *350:D *332:A1 9.17959e-05
4 *350:D *332:A2 4.66108e-05
5 *350:D *332:A3 0.000119242
6 *350:D *332:B1 4.89395e-05
7 *350:D *332:C1 6.72833e-06
8 *350:D *350:CLK 3.04704e-05
9 *350:D *351:CLK 9.12671e-06
*RES
1 *332:Y *350:D 7.61375 
*END

*D_NET *23 0.00188921
*CONN
*I *351:D I *D sky130_fd_sc_hd__dfxtp_1
*I *347:Y O *D sky130_fd_sc_hd__a311oi_1
*CAP
1 *351:D 0.000642148
2 *347:Y 0.000642148
3 *351:D *351:CLK 9.77945e-05
4 *351:D *55:22 0.000153866
5 *351:D *95:10 4.67481e-05
6 *351:D *98:22 0.000306503
*RES
1 *347:Y *351:D 17.25 
*END

*D_NET *24 0.0116285
*CONN
*I *289:A I *D sky130_fd_sc_hd__or2b_1
*I *302:C I *D sky130_fd_sc_hd__nand4b_1
*I *296:A I *D sky130_fd_sc_hd__or3_1
*I *288:A I *D sky130_fd_sc_hd__nor3b_2
*I *342:A1 I *D sky130_fd_sc_hd__a211o_1
*I *343:C I *D sky130_fd_sc_hd__and4b_1
*I *294:A I *D sky130_fd_sc_hd__and3_1
*I *318:C I *D sky130_fd_sc_hd__nand4b_1
*I *293:C I *D sky130_fd_sc_hd__and3b_1
*I *303:A_N I *D sky130_fd_sc_hd__and2b_1
*I *286:X O *D sky130_fd_sc_hd__buf_2
*CAP
1 *289:A 0.00017157
2 *302:C 2.86695e-05
3 *296:A 0.000219588
4 *288:A 0
5 *342:A1 6.36066e-05
6 *343:C 0
7 *294:A 0
8 *318:C 0.000283883
9 *293:C 0.000282304
10 *303:A_N 3.13966e-05
11 *286:X 8.89599e-05
12 *24:105 0.000388714
13 *24:96 0.00031557
14 *24:90 0.000504877
15 *24:43 0.000566188
16 *24:34 4.76065e-05
17 *24:32 0.000259993
18 *24:22 0.000539153
19 *24:12 0.0005755
20 *24:8 0.000463677
21 *289:A *289:B_N 1.56428e-05
22 *289:A *97:42 3.49355e-05
23 *293:C *293:B 4.61007e-06
24 *293:C *314:B1 0
25 *293:C *318:B 0
26 *293:C *25:10 7.20473e-05
27 *293:C *25:12 0.000259752
28 *293:C *31:8 3.62258e-06
29 *296:A *288:C_N 1.52352e-05
30 *296:A *35:6 0.00019608
31 *296:A *35:91 0.000149447
32 *296:A *86:38 0.000377964
33 *302:C *288:C_N 9.13949e-06
34 *302:C *302:A_N 1.20052e-05
35 *303:A_N *25:6 0.000122797
36 *303:A_N *25:58 3.57349e-05
37 *303:A_N *87:33 0.000158532
38 *318:C *318:A_N 0.000259712
39 *318:C *318:B 4.77719e-05
40 *318:C *318:D 3.13354e-05
41 *318:C *25:10 2.01779e-05
42 *318:C *25:73 0
43 *342:A1 *342:A2 2.70441e-05
44 *342:A1 *342:B1 4.21674e-05
45 *342:A1 *347:A2 1.79174e-05
46 *342:A1 *25:90 0.000146518
47 *24:8 *286:A 1.1392e-05
48 *24:12 *295:B1 0.000111087
49 *24:12 *329:C1 0
50 *24:12 *344:B1 8.03513e-05
51 *24:12 *346:B1 4.49452e-05
52 *24:12 *347:A3 0.000307263
53 *24:12 *347:B1 3.52569e-05
54 *24:12 *25:94 0
55 *24:22 *347:A2 3.64998e-06
56 *24:22 *347:A3 0
57 *24:22 *354:A 0.000193408
58 *24:22 *25:90 0.000389157
59 *24:32 *318:B 0.000113797
60 *24:32 *330:A1 8.23457e-05
61 *24:32 *330:B1 8.23457e-05
62 *24:32 *25:58 9.70435e-05
63 *24:32 *25:73 0.000333536
64 *24:32 *25:90 0.000148893
65 *24:32 *40:8 0.000197908
66 *24:32 *94:79 0.000194891
67 *24:32 *98:32 0.000112123
68 *24:34 *25:58 8.60799e-05
69 *24:34 *40:8 2.93678e-05
70 *24:34 *87:33 9.80943e-06
71 *24:90 *290:B 7.17961e-05
72 *24:90 *295:A1 0.000134822
73 *24:90 *295:B1 2.79336e-05
74 *24:90 *344:B1 1.92979e-05
75 *24:90 *87:33 1.20478e-05
76 *24:96 *295:A1 0.000115048
77 *24:96 *298:B 0.000123965
78 *24:96 *25:102 7.25354e-05
79 *24:96 *35:91 1.19928e-05
80 *24:105 *288:C_N 2.88144e-05
81 *24:105 *302:A_N 0.000212774
82 *24:105 *25:102 6.39287e-05
83 *24:105 *35:91 0.000519463
84 *352:A *24:90 0.00024791
85 *352:A *24:96 0.000410078
*RES
1 *286:X *24:8 4.74 
2 *24:8 *24:12 7.715 
3 *24:12 *24:22 10.06 
4 *24:22 *24:32 12.145 
5 *24:32 *24:34 0.795 
6 *24:34 *303:A_N 3.085 
7 *24:34 *24:43 2 
8 *24:43 *293:C 8.325 
9 *24:43 *318:C 8.94 
10 *24:32 *294:A 1.6 
11 *24:22 *343:C 1.6 
12 *24:12 *342:A1 3.445 
13 *24:8 *24:90 4.38 
14 *24:90 *24:96 7.4 
15 *24:96 *288:A 1.6 
16 *24:96 *24:105 5.205 
17 *24:105 *296:A 7.84 
18 *24:105 *302:C 2.215 
19 *24:90 *289:A 5.43 
*END

*D_NET *25 0.0110866
*CONN
*I *342:B1 I *D sky130_fd_sc_hd__a211o_1
*I *289:B_N I *D sky130_fd_sc_hd__or2b_1
*I *302:A_N I *D sky130_fd_sc_hd__nand4b_1
*I *288:B I *D sky130_fd_sc_hd__nor3b_2
*I *343:A_N I *D sky130_fd_sc_hd__and4b_1
*I *294:C I *D sky130_fd_sc_hd__and3_1
*I *318:A_N I *D sky130_fd_sc_hd__nand4b_1
*I *303:B I *D sky130_fd_sc_hd__and2b_1
*I *293:B I *D sky130_fd_sc_hd__and3b_1
*I *296:C I *D sky130_fd_sc_hd__or3_1
*I *287:X O *D sky130_fd_sc_hd__buf_2
*CAP
1 *342:B1 6.5069e-05
2 *289:B_N 5.54125e-05
3 *302:A_N 0.000102657
4 *288:B 0
5 *343:A_N 0
6 *294:C 0
7 *318:A_N 0.000248164
8 *303:B 0
9 *293:B 4.37506e-05
10 *296:C 0.000396647
11 *287:X 0.00016838
12 *25:102 0.000474873
13 *25:94 0.000708626
14 *25:90 0.000744439
15 *25:73 0.000650782
16 *25:58 0.000394828
17 *25:12 0.000661502
18 *25:10 0.000268393
19 *25:8 0.000295452
20 *25:6 0.000310798
21 *289:B_N *97:42 4.66108e-05
22 *296:C *86:26 1.53177e-05
23 *296:C *86:38 5.52124e-05
24 *296:C *93:35 0
25 *302:A_N *288:C_N 7.06624e-05
26 *318:A_N *318:B 1.14169e-05
27 *318:A_N *318:D 3.7837e-05
28 *342:B1 *335:B 4.27108e-05
29 *342:B1 *342:A2 3.29975e-05
30 *25:6 *86:16 3.97332e-06
31 *25:6 *87:14 2.68526e-05
32 *25:6 *87:33 2.20014e-05
33 *25:10 *86:16 0
34 *25:12 *86:16 0
35 *25:12 *93:35 0
36 *25:73 *318:B 6.94735e-06
37 *25:73 *330:A1 8.05167e-05
38 *25:73 *330:A2 4.82919e-05
39 *25:73 *330:B1 4.63425e-05
40 *25:73 *86:79 0.000191148
41 *25:90 *343:D 5.94966e-06
42 *25:90 *345:B1 6.5132e-06
43 *25:90 *86:79 0.000117217
44 *25:90 *86:90 3.88442e-05
45 *25:94 *290:B 0.000153152
46 *25:94 *295:A1 3.28509e-05
47 *25:94 *298:B 8.25088e-05
48 *25:94 *335:B 3.09738e-05
49 *25:94 *344:B1 3.94233e-05
50 *25:94 *346:B1 7.69464e-05
51 *25:94 *347:B1 9.23578e-05
52 *25:94 *87:33 0.000134118
53 *25:94 *95:26 0.000163985
54 *25:94 *99:27 2.13396e-05
55 *25:94 *100:56 0.000539401
56 *25:102 *298:B 0.000325705
57 *25:102 *299:B1 3.63576e-05
58 *25:102 *35:91 5.72197e-05
59 *25:102 *100:56 0.000408004
60 *289:A *289:B_N 1.56428e-05
61 *293:C *293:B 4.61007e-06
62 *293:C *25:10 7.20473e-05
63 *293:C *25:12 0.000259752
64 *302:C *302:A_N 1.20052e-05
65 *303:A_N *25:6 0.000122797
66 *303:A_N *25:58 3.57349e-05
67 *318:C *318:A_N 0.000259712
68 *318:C *25:10 2.01779e-05
69 *318:C *25:73 0
70 *342:A1 *342:B1 4.21674e-05
71 *342:A1 *25:90 0.000146518
72 *24:12 *25:94 0
73 *24:22 *25:90 0.000389157
74 *24:32 *25:58 9.70435e-05
75 *24:32 *25:73 0.000333536
76 *24:32 *25:90 0.000148893
77 *24:34 *25:58 8.60799e-05
78 *24:96 *25:102 7.25354e-05
79 *24:105 *302:A_N 0.000212774
80 *24:105 *25:102 6.39287e-05
*RES
1 *287:X *25:6 3.775 
2 *25:6 *25:8 2 
3 *25:8 *25:10 1.125 
4 *25:10 *25:12 4.44 
5 *25:12 *296:C 9.87 
6 *25:12 *293:B 4.05 
7 *25:10 *303:B 3.6 
8 *25:8 *318:A_N 8.625 
9 *25:6 *25:58 1.9275 
10 *25:58 *294:C 1.6 
11 *25:58 *25:73 9.9775 
12 *25:73 *343:A_N 1.6 
13 *25:73 *25:90 12.415 
14 *25:90 *25:94 11.54 
15 *25:94 *25:102 10.52 
16 *25:102 *288:B 1.6 
17 *25:102 *302:A_N 4.5325 
18 *25:94 *289:B_N 4.665 
19 *25:90 *342:B1 3.115 
*END

*D_NET *26 0.00632497
*CONN
*I *292:B1 I *D sky130_fd_sc_hd__o22a_1
*I *313:B1 I *D sky130_fd_sc_hd__o22a_1
*I *344:B1 I *D sky130_fd_sc_hd__o21a_1
*I *328:B1 I *D sky130_fd_sc_hd__o22a_1
*I *288:Y O *D sky130_fd_sc_hd__nor3b_2
*CAP
1 *292:B1 0.000302514
2 *313:B1 0
3 *344:B1 0.000566102
4 *328:B1 0
5 *288:Y 6.22891e-05
6 *26:28 0.000899341
7 *26:16 0.000727878
8 *26:10 0.000759442
9 *292:B1 *291:A1 1.53442e-05
10 *292:B1 *292:B2 0.000381249
11 *292:B1 *298:A 0.000195823
12 *292:B1 *302:D 0.000144838
13 *292:B1 *85:23 5.44874e-05
14 *292:B1 *85:25 4.82863e-05
15 *292:B1 *96:34 0.000152374
16 *344:B1 *329:A2 1.05631e-05
17 *344:B1 *354:A 1.9873e-05
18 *344:B1 *82:14 0.000460199
19 *344:B1 *87:33 0.000102368
20 *26:10 *316:A1 0.0001967
21 *26:16 *302:D 0.00033249
22 *26:16 *35:40 5.81345e-05
23 *26:28 *302:D 0
24 *26:28 *315:A2 9.00151e-05
25 *26:28 *329:A2 0.000106326
26 *26:28 *353:A 5.01641e-05
27 *26:28 *354:A 6.29385e-06
28 *26:28 *35:40 0.000245549
29 *352:A *26:10 0.000197249
30 *24:12 *344:B1 8.03513e-05
31 *24:90 *344:B1 1.92979e-05
32 *25:94 *344:B1 3.94233e-05
*RES
1 *288:Y *26:10 8 
2 *26:10 *26:16 8.99 
3 *26:16 *26:28 10.57 
4 *26:28 *328:B1 3.6 
5 *26:28 *344:B1 7.95873 
6 *26:16 *313:B1 3.6 
7 *26:10 *292:B1 9.70375 
*END

*D_NET *27 0.00347551
*CONN
*I *341:C1 I *D sky130_fd_sc_hd__a311o_1
*I *291:B1 I *D sky130_fd_sc_hd__a22oi_1
*I *289:X O *D sky130_fd_sc_hd__or2b_1
*CAP
1 *341:C1 0.000949538
2 *291:B1 0.000198436
3 *289:X 9.23945e-05
4 *27:8 0.00124037
5 *291:B1 *291:A1 4.89295e-05
6 *291:B1 *291:A2 0.000108118
7 *291:B1 *292:B2 4.50051e-05
8 *291:B1 *295:B2 0
9 *291:B1 *299:A1 1.52184e-05
10 *291:B1 *85:25 0.000235335
11 *291:B1 *96:28 0
12 *291:B1 *100:56 0
13 *341:C1 *290:A 0
14 *341:C1 *290:C_N 5.82103e-05
15 *341:C1 *55:22 0
16 *341:C1 *70:21 0
17 *341:C1 *82:14 6.13436e-05
18 *341:C1 *95:10 0.000261414
19 *341:C1 *95:20 0.000124508
20 *341:C1 *96:20 0
21 *341:C1 *96:22 0
22 *341:C1 *96:28 0
23 *341:C1 *100:56 0
24 *27:8 *97:42 3.66913e-05
*RES
1 *289:X *27:8 4.74 
2 *27:8 *291:B1 8.175 
3 *27:8 *341:C1 20.745 
*END

*D_NET *28 0.00361485
*CONN
*I *327:B1 I *D sky130_fd_sc_hd__a21oi_1
*I *312:B1 I *D sky130_fd_sc_hd__a21oi_1
*I *291:B2 I *D sky130_fd_sc_hd__a22oi_1
*I *290:X O *D sky130_fd_sc_hd__or3b_1
*CAP
1 *327:B1 0.000197557
2 *312:B1 0
3 *291:B2 0.000323471
4 *290:X 0.000364243
5 *28:10 0.000451856
6 *28:8 0.000690185
7 *291:B2 *302:D 0.000524311
8 *291:B2 *353:A 0.000135667
9 *291:B2 *97:21 0.000139252
10 *327:B1 *295:B1 0
11 *327:B1 *327:A2 8.9182e-05
12 *327:B1 *328:B2 1.47601e-05
13 *327:B1 *329:C1 1.42674e-05
14 *327:B1 *353:A 9.06179e-05
15 *327:B1 *354:A 1.88656e-05
16 *28:8 *290:B 1.34618e-05
17 *28:8 *295:A1 8.35157e-05
18 *28:8 *295:A2 4.41144e-05
19 *28:8 *295:B2 4.77719e-05
20 *28:8 *315:A2 0.000113115
21 *28:10 *295:B2 0
22 *28:10 *353:A 0.000227716
23 *28:10 *97:21 3.09164e-05
*RES
1 *290:X *28:8 8.19 
2 *28:8 *28:10 2.91 
3 *28:10 *291:B2 10.17 
4 *28:10 *312:B1 3.6 
5 *28:8 *327:B1 6.6075 
*END

*D_NET *29 0.000730737
*CONN
*I *292:B2 I *D sky130_fd_sc_hd__o22a_1
*I *291:Y O *D sky130_fd_sc_hd__a22oi_1
*CAP
1 *292:B2 6.83381e-05
2 *291:Y 6.83381e-05
3 *292:B2 *291:A1 4.89295e-05
4 *292:B2 *291:A2 0.000108118
5 *292:B2 *85:25 1.07593e-05
6 *291:B1 *292:B2 4.50051e-05
7 *292:B1 *292:B2 0.000381249
*RES
1 *291:Y *292:B2 6.425 
*END

*D_NET *30 0.000769468
*CONN
*I *298:A I *D sky130_fd_sc_hd__or3b_1
*I *292:X O *D sky130_fd_sc_hd__o22a_1
*CAP
1 *298:A 0.000242886
2 *292:X 0.000242886
3 *298:A *299:B1 4.89362e-05
4 *298:A *100:56 3.89366e-05
5 *292:B1 *298:A 0.000195823
*RES
1 *292:X *298:A 10.965 
*END

*D_NET *31 0.0030396
*CONN
*I *295:A2 I *D sky130_fd_sc_hd__a22o_1
*I *329:A2 I *D sky130_fd_sc_hd__a221o_1
*I *314:A2 I *D sky130_fd_sc_hd__a221o_1
*I *293:X O *D sky130_fd_sc_hd__and3b_1
*CAP
1 *295:A2 0.000297468
2 *329:A2 0.000254937
3 *314:A2 2.09808e-05
4 *293:X 0.000135397
5 *31:17 0.000770911
6 *31:8 0.000374883
7 *295:A2 *290:B 1.74095e-06
8 *295:A2 *295:A1 5.12711e-05
9 *295:A2 *295:B2 3.66786e-05
10 *295:A2 *315:A2 0.000419363
11 *329:A2 *32:21 6.8725e-06
12 *329:A2 *35:40 5.33386e-05
13 *329:A2 *94:48 0.000199509
14 *31:8 *315:B1 2.96424e-05
15 *31:17 *314:B2 1.12643e-05
16 *31:17 *315:A2 8.23457e-05
17 *31:17 *315:B1 0.000128365
18 *293:C *31:8 3.62258e-06
19 *344:B1 *329:A2 1.05631e-05
20 *26:28 *329:A2 0.000106326
21 *28:8 *295:A2 4.41144e-05
*RES
1 *293:X *31:8 3.77125 
2 *31:8 *314:A2 1.96 
3 *31:8 *31:17 3.91875 
4 *31:17 *329:A2 10.1637 
5 *31:17 *295:A2 7.795 
*END

*D_NET *32 0.00323362
*CONN
*I *345:A2 I *D sky130_fd_sc_hd__a211oi_1
*I *295:B1 I *D sky130_fd_sc_hd__a22o_1
*I *329:B1 I *D sky130_fd_sc_hd__a221o_1
*I *314:B1 I *D sky130_fd_sc_hd__a221o_1
*I *294:X O *D sky130_fd_sc_hd__and3_1
*CAP
1 *345:A2 1.42057e-05
2 *295:B1 0.000256305
3 *329:B1 1.57356e-05
4 *314:B1 0.000151153
5 *294:X 1.02931e-05
6 *32:30 0.000338595
7 *32:21 0.000217384
8 *32:6 0.00029501
9 *295:B1 *295:B2 7.9642e-06
10 *295:B1 *329:A1 1.16854e-05
11 *295:B1 *329:C1 0
12 *295:B1 *345:B1 2.20014e-05
13 *295:B1 *345:C1 4.77719e-05
14 *295:B1 *87:33 0.000197822
15 *295:B1 *95:35 1.98144e-05
16 *314:B1 *314:A1 0.000152892
17 *314:B1 *318:B 0.00015694
18 *314:B1 *93:35 5.18317e-06
19 *32:6 *40:8 4.77719e-05
20 *32:6 *87:33 4.77719e-05
21 *32:21 *329:A1 1.16854e-05
22 *32:21 *330:B1 8.73389e-06
23 *32:21 *40:8 0.000233004
24 *32:21 *87:33 0.000400964
25 *32:30 *329:A1 6.91292e-05
26 *32:30 *329:B2 1.18246e-05
27 *32:30 *329:C1 8.49205e-05
28 *32:30 *87:33 0.000140348
29 *293:C *314:B1 0
30 *327:B1 *295:B1 0
31 *329:A2 *32:21 6.8725e-06
32 *352:A *295:B1 0.000110821
33 *24:12 *295:B1 0.000111087
34 *24:90 *295:B1 2.79336e-05
*RES
1 *294:X *32:6 2.05 
2 *32:6 *314:B1 9.275 
3 *32:6 *32:21 4.26 
4 *32:21 *329:B1 1.96 
5 *32:21 *32:30 2.52 
6 *32:30 *295:B1 11.21 
7 *32:30 *345:A2 1.96 
*END

*D_NET *33 0.00110705
*CONN
*I *298:B I *D sky130_fd_sc_hd__or3b_1
*I *295:X O *D sky130_fd_sc_hd__a22o_1
*CAP
1 *298:B 0.000187603
2 *295:X 0.000187603
3 *298:B *295:A1 0.000177045
4 *298:B *299:B1 1.79098e-05
5 *298:B *35:91 4.7072e-06
6 *24:96 *298:B 0.000123965
7 *25:94 *298:B 8.25088e-05
8 *25:102 *298:B 0.000325705
*RES
1 *295:X *298:B 12.6 
*END

*D_NET *34 0.000359445
*CONN
*I *297:A I *D sky130_fd_sc_hd__clkbuf_2
*I *296:X O *D sky130_fd_sc_hd__or3_1
*CAP
1 *297:A 9.44159e-05
2 *296:X 9.44159e-05
3 *297:A *86:38 0.000170614
*RES
1 *296:X *297:A 5.045 
*END

*D_NET *35 0.0107665
*CONN
*I *299:B1 I *D sky130_fd_sc_hd__a21o_1
*I *298:C_N I *D sky130_fd_sc_hd__or3b_1
*I *331:B1 I *D sky130_fd_sc_hd__a21oi_1
*I *332:A1 I *D sky130_fd_sc_hd__a311oi_1
*I *346:B1 I *D sky130_fd_sc_hd__a21oi_1
*I *316:B1 I *D sky130_fd_sc_hd__a21oi_1
*I *317:A1 I *D sky130_fd_sc_hd__a311oi_1
*I *297:X O *D sky130_fd_sc_hd__clkbuf_2
*CAP
1 *299:B1 0.000319961
2 *298:C_N 0
3 *331:B1 1.79009e-05
4 *332:A1 0.000220743
5 *346:B1 0.000534626
6 *316:B1 8.29054e-05
7 *317:A1 0.000337732
8 *297:X 0.000132526
9 *35:91 0.000871913
10 *35:63 0.000310277
11 *35:40 0.00100561
12 *35:10 0.000526539
13 *35:8 0.000505255
14 *35:6 0.000684477
15 *299:B1 *299:A1 0.000114518
16 *299:B1 *299:A2 0.000114518
17 *299:B1 *300:B 4.8854e-05
18 *316:B1 *348:CLK 0.000308593
19 *316:B1 *97:6 0.000178092
20 *317:A1 *317:A2 0.00011087
21 *317:A1 *317:A3 0.000159026
22 *331:B1 *94:44 3.99802e-05
23 *331:B1 *98:32 8.34904e-06
24 *332:A1 *332:C1 4.6075e-05
25 *332:A1 *98:32 1.84465e-05
26 *346:B1 *347:B1 8.33066e-06
27 *346:B1 *86:79 0.000279015
28 *346:B1 *86:90 0.000406731
29 *346:B1 *94:44 1.84465e-05
30 *35:10 *302:D 4.28112e-06
31 *35:10 *317:A2 9.18556e-05
32 *35:10 *317:A3 6.72886e-05
33 *35:40 *302:D 7.6287e-05
34 *35:40 *315:A1 0.000280943
35 *35:40 *317:A3 0.000161255
36 *35:40 *330:A1 0.000137571
37 *35:40 *94:44 5.25411e-05
38 *35:40 *94:48 0.000307831
39 *35:40 *98:32 6.2968e-05
40 *35:63 *94:44 0.000222096
41 *35:63 *98:32 7.82054e-05
42 *296:A *35:6 0.00019608
43 *296:A *35:91 0.000149447
44 *298:A *299:B1 4.89362e-05
45 *298:B *299:B1 1.79098e-05
46 *298:B *35:91 4.7072e-06
47 *329:A2 *35:40 5.33386e-05
48 *349:D *317:A1 0.000200201
49 *350:D *332:A1 9.17959e-05
50 *24:12 *346:B1 4.49452e-05
51 *24:96 *35:91 1.19928e-05
52 *24:105 *35:91 0.000519463
53 *25:94 *346:B1 7.69464e-05
54 *25:102 *299:B1 3.63576e-05
55 *25:102 *35:91 5.72197e-05
56 *26:16 *35:40 5.81345e-05
57 *26:28 *35:40 0.000245549
*RES
1 *297:X *35:6 3.43 
2 *35:6 *35:8 2 
3 *35:8 *35:10 2.4 
4 *35:10 *317:A1 9.495 
5 *35:10 *316:B1 6.825 
6 *35:8 *35:40 12.9225 
7 *35:40 *346:B1 15.8275 
8 *35:40 *35:63 2.655 
9 *35:63 *332:A1 6.4575 
10 *35:63 *331:B1 4.0875 
11 *35:6 *35:91 7.98 
12 *35:91 *298:C_N 1.6 
13 *35:91 *299:B1 11.39 
*END

*D_NET *36 0.000532647
*CONN
*I *300:B I *D sky130_fd_sc_hd__and3b_1
*I *298:X O *D sky130_fd_sc_hd__or3b_1
*CAP
1 *300:B 0.000190576
2 *298:X 0.000190576
3 *300:B *100:25 3.97033e-05
4 *300:B *100:56 6.29387e-05
5 *299:B1 *300:B 4.8854e-05
*RES
1 *298:X *300:B 10.14 
*END

*D_NET *37 0.000296305
*CONN
*I *300:C I *D sky130_fd_sc_hd__and3b_1
*I *299:X O *D sky130_fd_sc_hd__a21o_1
*CAP
1 *300:C 0.000105717
2 *299:X 0.000105717
3 *300:C *301:A 5.03424e-05
4 *300:C *348:CLK 3.45275e-05
*RES
1 *299:X *300:C 5.03 
*END

*D_NET *38 0.000778881
*CONN
*I *301:A I *D sky130_fd_sc_hd__clkbuf_1
*I *300:X O *D sky130_fd_sc_hd__and3b_1
*CAP
1 *301:A 0.000116244
2 *300:X 0.000116244
3 *301:A *299:A2 8.33027e-05
4 *301:A *348:CLK 0.000412748
5 *300:C *301:A 5.03424e-05
*RES
1 *300:X *301:A 7.76 
*END

*D_NET *39 0.000672194
*CONN
*I *317:A2 I *D sky130_fd_sc_hd__a311oi_1
*I *302:Y O *D sky130_fd_sc_hd__nand4b_1
*CAP
1 *317:A2 0.000234734
2 *302:Y 0.000234734
3 *317:A1 *317:A2 0.00011087
4 *35:10 *317:A2 9.18556e-05
*RES
1 *302:Y *317:A2 11.43 
*END

*D_NET *40 0.0024497
*CONN
*I *330:A1 I *D sky130_fd_sc_hd__a21oi_1
*I *315:A1 I *D sky130_fd_sc_hd__a21oi_1
*I *303:X O *D sky130_fd_sc_hd__and2b_1
*CAP
1 *330:A1 0.000221114
2 *315:A1 0.000117135
3 *303:X 9.87379e-05
4 *40:8 0.000436986
5 *315:A1 *98:32 0.000154524
6 *330:A1 *98:32 0.00012904
7 *40:8 *330:B1 2.54431e-05
8 *40:8 *87:33 0.000177289
9 *24:32 *330:A1 8.23457e-05
10 *24:32 *40:8 0.000197908
11 *24:34 *40:8 2.93678e-05
12 *25:73 *330:A1 8.05167e-05
13 *32:6 *40:8 4.77719e-05
14 *32:21 *40:8 0.000233004
15 *35:40 *315:A1 0.000280943
16 *35:40 *330:A1 0.000137571
*RES
1 *303:X *40:8 7.845 
2 *40:8 *315:A1 7.02 
3 *40:8 *330:A1 7.41 
*END

*D_NET *41 0.00418159
*CONN
*I *321:A1 I *D sky130_fd_sc_hd__a21oi_2
*I *322:B I *D sky130_fd_sc_hd__and3_1
*I *336:B1 I *D sky130_fd_sc_hd__o21a_1
*I *305:A2 I *D sky130_fd_sc_hd__a21bo_1
*I *306:B I *D sky130_fd_sc_hd__nand3b_1
*I *304:Y O *D sky130_fd_sc_hd__nand3b_2
*CAP
1 *321:A1 0
2 *322:B 0.000124087
3 *336:B1 0.000150461
4 *305:A2 6.21518e-05
5 *306:B 0
6 *304:Y 4.6413e-05
7 *41:57 0.000273585
8 *41:34 0.000751871
9 *41:19 0.000617932
10 *41:8 0.000150281
11 *305:A2 *305:A1 5.93038e-05
12 *305:A2 *308:A2 3.19903e-05
13 *305:A2 *319:B1 8.41384e-05
14 *322:B *321:A2 5.12969e-06
15 *322:B *322:A 1.08758e-05
16 *322:B *322:C 3.61793e-05
17 *322:B *56:21 3.04704e-05
18 *322:B *58:14 0.00012306
19 *336:B1 *321:B1 8.41384e-05
20 *336:B1 *336:A2 2.62742e-05
21 *336:B1 *56:10 0.000110785
22 *336:B1 *57:20 0.000227415
23 *336:B1 *98:22 9.95691e-06
24 *336:B1 *98:59 6.90972e-05
25 *41:8 *309:A 2.68721e-05
26 *41:8 *311:A 0.000116597
27 *41:8 *319:A2 3.75482e-05
28 *41:8 *99:16 9.24825e-05
29 *41:19 *309:A 0.000133722
30 *41:19 *319:A2 6.10287e-05
31 *41:34 *307:B 7.1624e-05
32 *41:34 *307:C 3.38832e-05
33 *41:34 *309:A 3.51239e-05
34 *41:34 *319:A2 3.09164e-05
35 *41:34 *370:A 0
36 *41:34 *44:10 6.82135e-06
37 *41:34 *97:53 8.57384e-06
38 *41:34 *98:22 0.000139181
39 *41:57 *56:10 0.000132821
40 *41:57 *56:21 0.000122818
41 *41:57 *57:20 5.83121e-06
42 *41:57 *58:14 4.01438e-05
*RES
1 *304:Y *41:8 5.49 
2 *41:8 *306:B 3.6 
3 *41:8 *41:19 2.085 
4 *41:19 *305:A2 5.37 
5 *41:19 *41:34 8.9025 
6 *41:34 *336:B1 8.0025 
7 *41:34 *41:57 5.6075 
8 *41:57 *322:B 4.405 
9 *41:57 *321:A1 1.6 
*END

*D_NET *42 0.000682074
*CONN
*I *308:A1 I *D sky130_fd_sc_hd__a21o_1
*I *307:B I *D sky130_fd_sc_hd__and3_1
*I *305:X O *D sky130_fd_sc_hd__a21bo_1
*CAP
1 *308:A1 8.55483e-05
2 *307:B 0.000120324
3 *305:X 0
4 *42:4 0.000205872
5 *307:B *308:A2 1.31297e-05
6 *307:B *319:B1 4.77769e-05
7 *307:B *44:10 7.03276e-05
8 *308:A1 *308:A2 6.7471e-05
9 *41:34 *307:B 7.1624e-05
*RES
1 *305:X *42:4 1.6 
2 *42:4 *307:B 7.61 
3 *42:4 *308:A1 3.37 
*END

*D_NET *43 0.0010622
*CONN
*I *307:C I *D sky130_fd_sc_hd__and3_1
*I *308:A2 I *D sky130_fd_sc_hd__a21o_1
*I *306:Y O *D sky130_fd_sc_hd__nand3b_1
*CAP
1 *307:C 0.000170109
2 *308:A2 4.73856e-05
3 *306:Y 7.97058e-05
4 *43:8 0.0002972
5 *307:C *307:A 7.22466e-05
6 *307:C *309:A 2.02316e-05
7 *307:C *44:10 8.9257e-05
8 *43:8 *309:A 0.000139589
9 *43:8 *85:8 0
10 *305:A2 *308:A2 3.19903e-05
11 *307:B *308:A2 1.31297e-05
12 *308:A1 *308:A2 6.7471e-05
13 *41:34 *307:C 3.38832e-05
*RES
1 *306:Y *43:8 5.235 
2 *43:8 *308:A2 4.755 
3 *43:8 *307:C 6.675 
*END

*D_NET *44 0.00178827
*CONN
*I *319:B1 I *D sky130_fd_sc_hd__a21oi_2
*I *309:A I *D sky130_fd_sc_hd__or2b_1
*I *307:X O *D sky130_fd_sc_hd__and3_1
*CAP
1 *319:B1 0.000136128
2 *309:A 0.000257561
3 *307:X 7.37142e-05
4 *44:10 0.000467403
5 *309:A *311:A 7.78829e-05
6 *309:A *319:A1 2.86792e-05
7 *309:A *85:8 0
8 *319:B1 *305:A1 7.68414e-06
9 *319:B1 *319:A2 6.97118e-05
10 *44:10 *307:A 1.56428e-05
11 *305:A2 *319:B1 8.41384e-05
12 *307:B *319:B1 4.77769e-05
13 *307:B *44:10 7.03276e-05
14 *307:C *309:A 2.02316e-05
15 *307:C *44:10 8.9257e-05
16 *41:8 *309:A 2.68721e-05